Version 4
SHEET 1 880 680
WIRE 80 -96 -112 -96
WIRE 112 -96 80 -96
WIRE -624 -48 -1120 -48
WIRE -512 -48 -544 -48
WIRE -272 -48 -352 -48
WIRE -112 -48 -112 -96
WIRE -112 -48 -192 -48
WIRE -64 -48 -112 -48
WIRE -112 -32 -112 -48
WIRE -1120 -16 -1120 -48
WIRE -512 32 -576 32
WIRE -240 32 -352 32
WIRE -160 32 -240 32
WIRE 80 64 80 -96
WIRE -1120 96 -1120 64
WIRE -624 96 -1120 96
WIRE -576 96 -576 32
WIRE -576 96 -624 96
WIRE -112 96 -112 32
WIRE -624 128 -624 96
WIRE -240 240 -240 32
WIRE -224 240 -240 240
WIRE -112 240 -112 176
WIRE -112 240 -144 240
WIRE 0 240 -112 240
WIRE 80 240 80 144
WIRE 80 240 0 240
WIRE 0 272 0 240
FLAG 0 272 0
FLAG 112 -96 V_p
FLAG -64 -48 V_T
FLAG -624 128 0
SYMBOL Misc\\signal 80 48 R0
WINDOW 123 0 0 Left 0
WINDOW 39 0 0 Left 0
SYMATTR InstName V_p
SYMATTR Value SINE(0 311.137 60)
SYMBOL res -128 80 R0
SYMATTR InstName HEATER
SYMATTR Value 8R8
SYMBOL ZZZ\\Triac\\Triac_A -144 -32 R0
SYMATTR InstName U1
SYMATTR SpiceModel 2N5446
SYMBOL res -176 -64 R90
WINDOW 0 0 56 VBottom 2
WINDOW 3 32 56 VTop 2
SYMATTR InstName R1
SYMATTR Value 2000R
SYMBOL res -128 224 R90
WINDOW 0 0 56 VBottom 2
WINDOW 3 32 56 VTop 2
SYMATTR InstName R3
SYMATTR Value 1000000R
SYMBOL ZZZ\\OPTO\\Led_Triac -464 -32 R0
SYMATTR SpiceModel MOC3023
SYMATTR InstName U2
SYMBOL res -528 -64 R90
WINDOW 0 0 56 VBottom 2
WINDOW 3 32 56 VTop 2
SYMATTR InstName R2
SYMATTR Value 700R
SYMBOL Misc\\signal -1120 -32 R0
WINDOW 123 0 0 Left 0
WINDOW 39 0 0 Left 0
SYMATTR InstName V1
SYMATTR Value PULSE(0 5 0.000001 0.000001 0.000001 0.1 0.2)
TEXT -624 320 Left 2 !.tran 0.5
