Version 4
SHEET 1 2224 680
WIRE 112 -48 -64 -48
WIRE -64 -16 -64 -48
WIRE 112 16 112 -48
WIRE 976 48 976 16
WIRE 976 144 976 128
WIRE 1072 144 976 144
WIRE 1232 144 1152 144
WIRE 1248 144 1232 144
WIRE 1344 144 1328 144
WIRE 112 160 112 96
WIRE 208 160 112 160
WIRE 368 160 288 160
WIRE 608 160 576 160
WIRE 768 160 688 160
WIRE 784 160 768 160
WIRE 880 160 864 160
WIRE 976 160 976 144
WIRE 1744 160 1744 128
WIRE 1744 160 1664 160
WIRE 112 192 112 160
WIRE 1664 192 1664 160
WIRE 1744 192 1744 160
WIRE 1232 256 1232 144
WIRE 1248 256 1232 256
WIRE 768 272 768 160
WIRE 784 272 768 272
WIRE 1344 272 1344 144
WIRE 1344 272 1312 272
WIRE 1440 272 1344 272
WIRE 1664 272 1664 256
WIRE 112 288 112 272
WIRE 208 288 112 288
WIRE 368 288 288 288
WIRE 880 288 880 160
WIRE 880 288 848 288
WIRE 1056 288 880 288
WIRE 1168 288 1136 288
WIRE 1248 288 1168 288
WIRE 592 304 560 304
WIRE 704 304 672 304
WIRE 784 304 704 304
WIRE 112 320 112 288
WIRE 1168 320 1168 288
WIRE 704 336 704 304
WIRE 1744 336 1744 272
WIRE 1168 432 1168 400
WIRE 704 448 704 416
WIRE 112 480 112 400
FLAG 112 480 0
FLAG 368 160 Vp
FLAG 1744 336 0
FLAG 1744 128 Vcc
FLAG 1664 272 0
FLAG 816 256 Vcc
FLAG 816 320 0
FLAG 368 288 Vm
FLAG 704 448 0
FLAG 560 304 Vp
FLAG 576 160 Vm
FLAG 1280 240 Vcc
FLAG 1280 304 0
FLAG 1168 432 0
FLAG 1440 272 Vin
FLAG 976 240 0
FLAG 976 16 Vcc
FLAG -64 64 0
SYMBOL ZZZ\\NoLin\\pt100 128 288 R180
WINDOW 0 52 79 Left 0
WINDOW 3 44 16 Left 0
WINDOW 38 44 -5 Left 2
SYMATTR InstName U1
SYMATTR Value sensT=Temp
SYMBOL res 128 416 R180
WINDOW 0 36 76 Left 2
WINDOW 3 36 40 Left 2
SYMATTR InstName R_c1
SYMATTR Value 1.3R
SYMBOL res 128 112 R180
WINDOW 0 36 76 Left 2
WINDOW 3 36 40 Left 2
SYMATTR InstName R_c2
SYMATTR Value 1.3R
SYMBOL res 192 176 R270
WINDOW 0 32 56 VTop 2
WINDOW 3 0 56 VBottom 2
SYMATTR InstName R_c3
SYMATTR Value 1.3R
SYMBOL voltage 1744 176 R0
SYMATTR InstName V1
SYMATTR Value 10V
SYMBOL cap 1680 256 R180
WINDOW 0 24 56 Left 2
WINDOW 3 24 8 Left 2
SYMATTR InstName C1
SYMATTR Value 0.01u
SYMBOL res 768 176 R270
WINDOW 0 32 56 VTop 2
WINDOW 3 0 56 VBottom 2
SYMATTR InstName R2_1
SYMATTR Value 10k
SYMBOL ZZZ\\OpAmp\\LM358_AB 816 224 R0
SYMATTR InstName U2
SYMBOL res 192 304 R270
WINDOW 0 32 56 VTop 2
WINDOW 3 0 56 VBottom 2
SYMATTR InstName R_c4
SYMATTR Value 1.3R
SYMBOL res 592 176 R270
WINDOW 0 32 56 VTop 2
WINDOW 3 0 56 VBottom 2
SYMATTR InstName R1_1
SYMATTR Value 10k
SYMBOL res 688 320 R0
SYMATTR InstName R2_2
SYMATTR Value 10k
SYMBOL res 576 320 R270
WINDOW 0 32 56 VTop 2
WINDOW 3 0 56 VBottom 2
SYMATTR InstName R1_2
SYMATTR Value 10k
SYMBOL res 1232 160 R270
WINDOW 0 32 56 VTop 2
WINDOW 3 0 56 VBottom 2
SYMATTR InstName R1
SYMATTR Value 1300k
SYMBOL ZZZ\\OpAmp\\LM358_AB 1280 208 R0
SYMATTR InstName U3
SYMBOL res 1056 160 R270
WINDOW 0 32 56 VTop 2
WINDOW 3 0 56 VBottom 2
SYMATTR InstName R2
SYMATTR Value 10k
SYMBOL res 1152 304 R0
SYMATTR InstName R3
SYMATTR Value 1300k
SYMBOL res 1040 304 R270
WINDOW 0 32 56 VTop 2
WINDOW 3 0 56 VBottom 2
SYMATTR InstName R4
SYMATTR Value 10k
SYMBOL res 960 144 R0
SYMATTR InstName R6
SYMATTR Value 100R
SYMBOL res 960 32 R0
SYMATTR InstName R7
SYMATTR Value 9k9
SYMBOL current -64 64 R180
WINDOW 0 24 80 Left 2
WINDOW 3 24 0 Left 2
SYMATTR InstName I1
SYMATTR Value 1m
TEXT -312 432 Left 2 !.tran 0.1
TEXT 304 424 Right 2 ;PT100
TEXT -312 400 Left 2 !.STEP Temp 0 100 20
RECTANGLE Normal 320 -32 0 448 2
